data_image0
_chemical_formula_structural       Dy6Te18
_chemical_formula_sum              "Dy6 Te18"
_cell_length_a       4.3182449341
_cell_length_b       55.5500717163
_cell_length_c       4.3147978783
_cell_angle_alpha    90.0
_cell_angle_beta     90.0
_cell_angle_gamma    90.0

_space_group_name_H-M_alt    "P 1"
_space_group_IT_number       1

loop_
  _space_group_symop_operation_xyz
  'x, y, z'

loop_
  _atom_site_type_symbol
  _atom_site_label
  _atom_site_symmetry_multiplicity
  _atom_site_fract_x
  _atom_site_fract_y
  _atom_site_fract_z
  _atom_site_occupancy
  Dy  Dy1       1.0  0.0  0.5378522434432664  0.25  1.0000
  Dy  Dy2       1.0  0.0  0.2248333840000001  0.75  1.0000
  Dy  Dy3       1.0  0.5  0.2977367639999997  0.25  1.0000
  Dy  Dy4       1.0  0.5  0.46497438053253176  0.75  1.0000
  Dy  Dy5       1.0  0.0  0.7055265635016289  0.75  1.0000
  Dy  Dy6       1.0  0.5  0.7784136551613053  0.25  1.0000
  Te  Te1       1.0  0.0  0.1800177690000027  0.25  1.0000
  Te  Te2       1.0  0.0  0.5825555197671082  0.75  1.0000
  Te  Te3       1.0  0.5  0.4202778014808856  0.25  1.0000
  Te  Te4       1.0  0.5  0.34255236399999933  0.75  1.0000
  Te  Te5       1.0  0.0  0.3425252139999984  0.25  1.0000
  Te  Te6       1.0  0.0  0.4202884540355167  0.75  1.0000
  Te  Te7       1.0  0.5  0.5825459206469357  0.25  1.0000
  Te  Te8       1.0  0.5  0.1800449189999966  0.75  1.0000
  Te  Te9       1.0  0.0  0.4814547370136203  0.25  1.0000
  Te  Te10      1.0  0.0  0.2812746170000011  0.75  1.0000
  Te  Te11      1.0  0.5  0.2412955309999987  0.25  1.0000
  Te  Te12      1.0  0.5  0.5213781467572409  0.75  1.0000
  Te  Te13      1.0  0.0  0.6608233069937012  0.25  1.0000
  Te  Te14      1.0  0.5  0.8230935523343865  0.75  1.0000
  Te  Te15      1.0  0.0  0.8230845090370765  0.25  1.0000
  Te  Te16      1.0  0.5  0.6608272427602593  0.75  1.0000
  Te  Te17      1.0  0.0  0.7619337696254334  0.75  1.0000
  Te  Te18      1.0  0.5  0.7220084637970958  0.25  1.0000
